/*--------------------------------*- C++ -*----------------------------------*\
| =========                 |                                                 |
| \\      /  F ield         | OpenFOAM: The Open Source CFD Toolbox           |
|  \\    /   O peration     | Version:  v2012                                 |
|   \\  /    A nd           | Website:  www.openfoam.com                      |
|    \\/     M anipulation  |                                                 |
\*---------------------------------------------------------------------------*/
FoamFile
{
    version     2.0;
    format      ascii;
    class       dictionary;
    object      blockMeshDict;
}
// * * * * * * * * * * * * * * * * * * * * * * * * * * * * * * * * * * * * * //

scale   1;

vertices
(
    // bloco do meio
    (0 0 0) // 0
    ( 1 0 0) // 1
    ( 1 1 0) // 2
    (0 1 0) // 3
    (0 0 0.1) //4
    ( 1 0 0.1) //5 
    ( 1 1 0.1) //6
    (0 1 0.1) //7

    // bloco da direita
    (1 0 0) // 8
    ( 2 0 0) // 9
    ( 2 1 0) // 10
    (1 1 0) // 11
    (1 0 0.1) //12
    ( 2 0 0.1) //13 
    ( 2 1 0.1) //14
    (1 1 0.1) //15

    // bloco da esquerda
    ( -1 0 0) // 16
    ( 0 0 0) // 17
    ( 0 1 0) // 18
    (-1 1 0) // 19
    (-1 0 0.1) //20
    ( 0 0 0.1) //21
    ( 0 1 0.1) //22
    (-1 1 0.1) //23
);

blocks
(
    hex (0 1 2 3 4 5 6 7) (80 60 10) simpleGrading (1 1 1)

    hex (8 9 10 11 12 13 14 15) (80 60 10) simpleGrading (1 1 1)

    hex (16 17 18 19 20 21 22 23) (80 60 10) simpleGrading (1 1 1)
);

edges
(
    // arco de cima
    arc 0 1 (0.5 -0.25 0)
    arc 4 5 (0.5 -0.25 0)

    arc 3 2 (0.5 1.25 0)
    arc 7 6 (0.5 1.25 0)
);

boundary
(
    free
    {
        type patch;
        faces
        (
            (3 7 6 2)
            (1 5 4 0)
        );
    }
    inlet
    {
        type patch;
        faces
        (
            (0 4 7 3)
        );
    }
    outlet
    {
        type patch;
        faces
        (
            (2 6 5 1)
        );
    }
    frontAndBack
    {
        type patch;
        faces
        (
            (0 3 2 1)
            (4 5 6 7)
        );
    }
);

// ************************************************************************* //
